examples/test_perturbation_outputs/pert_min_cost/pglib_opf_case57_ieee.m
%% MATPOWER Case Format : Version 2
function mpc = pglib_opf_case57_ieee
mpc.version = '2';

%%-----  Power Flow Data  -----%%
%% system MVA base
mpc.baseMVA = 100.0;
%% bus data
%    bus_i    type    Pd    Qd    Gs    Bs    area    Vm    Va    baseKV    zone    Vmax    Vmin
mpc.bus = [
	1	3	55.00000000000001	17.0	0.0	0.0	1	1.0	0.0	1.0	1	1.06	0.94				
	2	2	3.0	88.0	0.0	0.0	1	1.0	0.0	1.0	1	1.06	0.94				
	3	2	41.0	21.0	0.0	0.0	1	1.0	0.0	1.0	1	1.06	0.94				
	4	1	0.0	0.0	0.0	0.0	1	1.0	0.0	1.0	1	1.06	0.94				
	5	1	13.0	4.0	0.0	0.0	1	1.0	0.0	1.0	1	1.06	0.94				
	6	2	75.0	2.0	0.0	0.0	1	1.0	0.0	1.0	1	1.06	0.94				
	7	1	0.0	0.0	0.0	0.0	1	1.0	0.0	1.0	1	1.06	0.94				
	8	2	150.0	22.0	0.0	0.0	1	1.0	0.0	1.0	1	1.06	0.94				
	9	2	121.0	26.0	0.0	0.0	1	1.0	0.0	1.0	1	1.06	0.94				
	10	1	5.0	2.0	0.0	0.0	1	1.0	0.0	1.0	1	1.06	0.94				
	11	1	0.0	0.0	0.0	0.0	1	1.0	0.0	1.0	1	1.06	0.94				
	12	2	377.0	24.0	0.0	0.0	1	1.0	0.0	1.0	1	1.06	0.94				
	13	1	18.0	2.3	0.0	0.0	1	1.0	0.0	1.0	1	1.06	0.94				
	14	1	10.5	5.3	0.0	0.0	1	1.0	0.0	1.0	1	1.06	0.94				
	15	1	22.0	5.0	0.0	0.0	1	1.0	0.0	1.0	1	1.06	0.94				
	16	1	43.0	3.0	0.0	0.0	1	1.0	0.0	1.0	1	1.06	0.94				
	17	1	42.0	8.0	0.0	0.0	1	1.0	0.0	1.0	1	1.06	0.94				
	18	1	27.200000000000003	9.8	0.0	10.0	1	1.0	0.0	1.0	1	1.06	0.94				
	19	1	3.3000000000000003	0.6	0.0	0.0	1	1.0	0.0	1.0	1	1.06	0.94				
	20	1	2.3	1.0	0.0	0.0	1	1.0	0.0	1.0	1	1.06	0.94				
	21	1	0.0	0.0	0.0	0.0	1	1.0	0.0	1.0	1	1.06	0.94				
	22	1	0.0	0.0	0.0	0.0	1	1.0	0.0	1.0	1	1.06	0.94				
	23	1	6.3	2.1	0.0	0.0	1	1.0	0.0	1.0	1	1.06	0.94				
	24	1	0.0	0.0	0.0	0.0	1	1.0	0.0	1.0	1	1.06	0.94				
	25	1	6.3	3.2	0.0	5.9	1	1.0	0.0	1.0	1	1.06	0.94				
	26	1	0.0	0.0	0.0	0.0	1	1.0	0.0	1.0	1	1.06	0.94				
	27	1	9.3	0.5	0.0	0.0	1	1.0	0.0	1.0	1	1.06	0.94				
	28	1	4.6	2.3	0.0	0.0	1	1.0	0.0	1.0	1	1.06	0.94				
	29	1	17.0	2.6	0.0	0.0	1	1.0	0.0	1.0	1	1.06	0.94				
	30	1	3.6000000000000005	1.8000000000000003	0.0	0.0	1	1.0	0.0	1.0	1	1.06	0.94				
	31	1	5.8	2.9	0.0	0.0	1	1.0	0.0	1.0	1	1.06	0.94				
	32	1	1.6	0.8	0.0	0.0	1	1.0	0.0	1.0	1	1.06	0.94				
	33	1	3.8	1.9	0.0	0.0	1	1.0	0.0	1.0	1	1.06	0.94				
	34	1	0.0	0.0	0.0	0.0	1	1.0	0.0	1.0	1	1.06	0.94				
	35	1	6.0	3.0	0.0	0.0	1	1.0	0.0	1.0	1	1.06	0.94				
	36	1	0.0	0.0	0.0	0.0	1	1.0	0.0	1.0	1	1.06	0.94				
	37	1	0.0	0.0	0.0	0.0	1	1.0	0.0	1.0	1	1.06	0.94				
	38	1	14.000000000000002	7.000000000000001	0.0	0.0	1	1.0	0.0	1.0	1	1.06	0.94				
	39	1	0.0	0.0	0.0	0.0	1	1.0	0.0	1.0	1	1.06	0.94				
	40	1	0.0	0.0	0.0	0.0	1	1.0	0.0	1.0	1	1.06	0.94				
	41	1	6.3	3.0	0.0	0.0	1	1.0	0.0	1.0	1	1.06	0.94				
	42	1	7.1	4.4	0.0	0.0	1	1.0	0.0	1.0	1	1.06	0.94				
	43	1	2.0	1.0	0.0	0.0	1	1.0	0.0	1.0	1	1.06	0.94				
	44	1	12.0	1.8000000000000003	0.0	0.0	1	1.0	0.0	1.0	1	1.06	0.94				
	45	1	0.0	0.0	0.0	0.0	1	1.0	0.0	1.0	1	1.06	0.94				
	46	1	0.0	0.0	0.0	0.0	1	1.0	0.0	1.0	1	1.06	0.94				
	47	1	29.7	11.6	0.0	0.0	1	1.0	0.0	1.0	1	1.06	0.94				
	48	1	0.0	0.0	0.0	0.0	1	1.0	0.0	1.0	1	1.06	0.94				
	49	1	18.0	8.5	0.0	0.0	1	1.0	0.0	1.0	1	1.06	0.94				
	50	1	21.0	10.5	0.0	0.0	1	1.0	0.0	1.0	1	1.06	0.94				
	51	1	18.0	5.3	0.0	0.0	1	1.0	0.0	1.0	1	1.06	0.94				
	52	1	4.9	2.2	0.0	0.0	1	1.0	0.0	1.0	1	1.06	0.94				
	53	1	20.0	10.0	0.0	6.3	1	1.0	0.0	1.0	1	1.06	0.94				
	54	1	4.1	1.4	0.0	0.0	1	1.0	0.0	1.0	1	1.06	0.94				
	55	1	6.800000000000001	3.4000000000000004	0.0	0.0	1	1.0	0.0	1.0	1	1.06	0.94				
	56	1	7.6	2.2	0.0	0.0	1	1.0	0.0	1.0	1	1.06	0.94				
	57	1	6.7	2.0	0.0	0.0	1	1.0	0.0	1.0	1	1.06	0.94				
];

%% generator data
%    bus    Pg    Qg    Qmax    Qmin    Vg    mBase    status    Pmax    Pmin    Pc1    Pc2    Qc1min    Qc1max    Qc2min    Qc2max    ramp_agc    ramp_10    ramp_30    ramp_q    apf
mpc.gen = [
	1	122.50000000000001	0.0	123.0	-123.0	1.0	100.0	1	245.00000000000003	0.0															
	2	0.0	16.5	50.0	-17.0	1.0	100.0	1	0.0	0.0															
	3	30.0	10.0	30.0	-10.0	1.0	100.0	1	60.0	0.0															
	6	0.0	8.5	25.0	-8.0	1.0	100.0	1	0.0	0.0															
	8	579.5	30.0	200.0	-140.0	1.0	100.0	1	1159.0	0.0															
	9	0.0	3.0	9.0	-3.0	1.0	100.0	1	0.0	0.0															
	12	259.5	2.5	155.0	-150.0	1.0	100.0	1	519.0	0.0															
];

%% branch data
%    f_bus    t_bus    r    x    b    rateA    rateB    rateC    ratio    angle    status    angmin    angmax
mpc.branch = [
	1	2	0.00828136539273502	0.027937136973750033	-0.0008392735940908749	1005.0000000000001	1005.0000000000001	1005.0000000000001	0	0	1	-29.999999999999996	29.999999999999996								
	2	3	0.02983399419456538	0.08509703620197115	-0.0008393638074852636	326.0	326.0	326.0	0	0	1	-29.999999999999996	29.999999999999996								
	3	4	0.011118600268598641	0.0363339960445222	-0.07191574789333577	767.0	767.0	767.0	0	0	1	-29.999999999999996	29.999999999999996								
	4	5	0.0630178955271921	0.13309375932090706	-0.0008392523434156268	200.99999999999997	200.99999999999997	200.99999999999997	0	0	1	-29.999999999999996	29.999999999999996								
	4	6	0.04428648999055443	0.15242782537582025	-0.07206915086105573	191.0	191.0	191.0	0	0	1	-29.999999999999996	29.999999999999996								
	6	7	0.019951894381955354	0.10175443202328019	-0.0008393273872208721	283.0	283.0	283.0	0	0	1	-29.999999999999996	29.999999999999996								
	6	8	0.034195520463567886	0.17451550427095183	-0.05013690429846605	167.0	167.0	167.0	0	0	1	-29.999999999999996	29.999999999999996								
	8	9	0.00959747932017318	0.048956851693902875	-0.026603692921463074	570.0	570.0	570.0	0	0	1	-29.999999999999996	29.999999999999996								
	9	10	0.035727459365988465	0.16255908010229758	-0.000839264109169678	171.0	171.0	171.0	0	0	1	-29.999999999999996	29.999999999999996								
	9	11	0.02590120038751733	0.08513275620964142	-0.050661628749591056	331.0	331.0	331.0	0	0	1	-29.999999999999996	29.999999999999996								
	9	12	0.0648645625719382	0.29529409714104105	-0.0008392512620481697	98.0	98.0	98.0	0	0	1	-29.999999999999996	29.999999999999996								
	9	13	0.04824038158378192	0.15846188071885164	-0.0008396871202337086	178.0	178.0	178.0	0	0	1	-29.999999999999996	29.999999999999996								
	13	14	0.013153773247730474	0.04324801629580489	-0.0008393756356595112	647.0	647.0	647.0	0	0	1	-29.999999999999996	29.999999999999996								
	13	15	0.026829401262607726	0.08667183614118637	-0.0008394084585302196	323.0	323.0	323.0	0	0	1	-29.999999999999996	29.999999999999996								
	1	15	0.017959414640104268	0.09181546074795324	-0.0008392579739159114	317.0	317.0	317.0	0	0	1	-29.999999999999996	29.999999999999996								
	1	16	0.04515354626264701	0.20487663798162545	-0.0008392546004204327	140.0	140.0	140.0	0	0	1	-29.999999999999996	29.999999999999996								
	1	17	0.02390577029174053	0.10847941735136854	-0.02474748003918932	266.0	266.0	266.0	0	0	1	-29.999999999999996	29.999999999999996								
	3	15	0.016136670744039915	0.052792827883589674	-0.0008392500196792747	530.0	530.0	530.0	0	0	1	-29.999999999999996	29.999999999999996								
	4	18	0.022795639728844446	0.5503977425824048	-0.2132145307557618	53.0	53.0	53.0	0.97	0.0	1	-29.999999999999996	29.999999999999996								
	4	18	0.013993613332304693	0.43137946170358793	-0.0008392502705851027	69.0	69.0	69.0	0.978	0.0	1	-29.999999999999996	29.999999999999996								
	5	6	0.02968878469907073	0.0630149390849482	-0.0008392725405744105	413.99999999999994	413.99999999999994	413.99999999999994	0	0	1	-29.999999999999996	29.999999999999996								
	7	8	0.013653032977424531	0.06993588543750112	-0.0008393523063408253	405.0	405.0	405.0	0	0	1	-29.999999999999996	29.999999999999996								
	10	12	0.028188074344572496	0.1284219428550748	-0.17794883184084584	227.99999999999997	227.99999999999997	227.99999999999997	0	0	1	-29.999999999999996	29.999999999999996								
	11	13	0.02242550208619159	0.0736119680436391	-0.012774647056583072	384.0	384.0	384.0	0	0	1	-29.999999999999996	29.999999999999996								
	12	13	0.017596194981926383	0.05733591739904498	-0.0008392656765287476	484.0	484.0	484.0	0	0	1	-29.999999999999996	29.999999999999996								
	12	16	0.017960368155100888	0.08112101923598303	-0.13571210488059626	353.0	353.0	353.0	0	0	1	-29.999999999999996	29.999999999999996								
	12	17	0.039792635536055526	0.17941702930811726	-0.0008392689749924905	160.0	160.0	160.0	0	0	1	-29.999999999999996	29.999999999999996								
	14	15	0.017289669795342376	0.0553067255685602	-0.008771449461320179	512.0	512.0	512.0	0	0	1	-29.999999999999996	29.999999999999996								
	18	19	0.4656763703097285	0.691954253890494	-0.0008394952646736232	36.0	36.0	36.0	0	0	1	-29.999999999999996	29.999999999999996								
	19	20	0.28526938215283726	0.4374786215853235	-0.0008394908834404176	56.99999999999999	56.99999999999999	56.99999999999999	0	0	1	-29.999999999999996	29.999999999999996								
	21	20	0.0462862300368493	0.7835964861348427	-0.0008392443103762433	38.0	38.0	38.0	1.043	0.0	1	-29.999999999999996	29.999999999999996								
	21	22	0.07410833892423739	0.11780808422186671	-0.006768637698116885	213.0	213.0	213.0	0	0	1	-29.999999999999996	29.999999999999996								
	22	23	0.009914832600700146	0.015222773155241771	-0.0008392788097401092	1617.0000000000002	1617.0000000000002	1617.0000000000002	0	0	1	-29.999999999999996	29.999999999999996								
	23	24	0.16457726917003537	0.2537904760406976	-0.029893793990622603	97.0	97.0	97.0	0	0	1	-29.999999999999996	29.999999999999996								
	24	25	0.1374653783390391	1.3457536932821783	-0.012399242458457591	25.0	25.0	25.0	1.0	0.0	1	-29.999999999999996	29.999999999999996								
	24	25	0.11407536746753956	1.2270154491996355	-0.0008392539096688451	24.0	24.0	24.0	1.0	0.0	1	-29.999999999999996	29.999999999999996								
	24	26	0.0001680030345810953	0.04729102603602888	-0.08616713462320047	621.0	621.0	621.0	1.043	0.0	1	-29.999999999999996	29.999999999999996								
	26	27	0.16487091426877643	0.2538044095161759	-0.02207572693588449	97.0	97.0	97.0	0	0	1	-29.999999999999996	29.999999999999996								
	27	28	0.061846815771595856	0.09547248168623657	-0.06866424654431232	259.0	259.0	259.0	0	0	1	-29.999999999999996	29.999999999999996								
	28	29	0.041712040368808705	0.058576505069994324	-0.0008392586325534917	408.0	408.0	408.0	0	0	1	-29.999999999999996	29.999999999999996								
	7	29	0.00031307932723260496	0.06455724715206729	-0.0008393068797757983	453.0	453.0	453.0	0.967	0.0	1	-29.999999999999996	29.999999999999996								
	25	30	0.1384656058173625	0.20718430384138684	-0.0008392600753645865	121.0	121.0	121.0	0	0	1	-29.999999999999996	29.999999999999996								
	30	31	0.33960518208717094	0.5177381446134444	-0.0008392471475889811	50.0	50.0	50.0	0	0	1	-29.999999999999996	29.999999999999996								
	31	32	0.5302191689358543	0.7896117201144268	-0.0008392470488566869	33.0	33.0	33.0	0	0	1	-29.999999999999996	29.999999999999996								
	32	33	0.03908545901229177	0.035894809104575785	-0.000839238012534681	552.0	552.0	552.0	0	0	1	-29.999999999999996	29.999999999999996								
	34	32	0.08198579901999524	1.0414795322159318	-0.006789853949012681	31.0	31.0	31.0	0.975	0.0	1	-29.999999999999996	29.999999999999996								
	34	35	0.0518263036801023	0.07773938431520992	-0.0008393455506924637	313.0	313.0	313.0	0	0	1	-29.999999999999996	29.999999999999996								
	35	36	0.043047944281761424	0.053759863226656275	-0.008487056307684667	426.99999999999994	426.99999999999994	426.99999999999994	0	0	1	-29.999999999999996	29.999999999999996								
	36	37	0.028955892923039947	0.03654432962941354	-0.0008395525121604454	629.0	629.0	629.0	0	0	1	-29.999999999999996	29.999999999999996								
	37	38	0.06528570403085285	0.10118771514586493	-0.0008392969014895291	245.00000000000003	245.00000000000003	245.00000000000003	0	0	1	-29.999999999999996	29.999999999999996								
	37	39	0.024003475900781	0.0380640893429311	-0.001424936294366046	655.0	655.0	655.0	0	0	1	-29.999999999999996	29.999999999999996								
	36	40	0.03003751499094403	0.046658274104566556	-0.0008392858078965981	530.0	530.0	530.0	0	0	1	-29.999999999999996	29.999999999999996								
	22	38	0.019198176749230064	0.029497195713171113	-0.17876156645670355	834.0	834.0	834.0	0	0	1	-29.999999999999996	29.999999999999996								
	11	41	0.04143249958417475	0.7415092593441684	-0.0008393185236635323	40.0	40.0	40.0	0.955	0.0	1	-29.999999999999996	29.999999999999996								
	41	42	0.20795796919237547	0.3536307364761655	-0.0008397023357984967	72.0	72.0	72.0	0	0	1	-29.999999999999996	29.999999999999996								
	41	43	0.012646346912225256	0.4101087861704086	-0.09266648223648977	72.0	72.0	72.0	0	0	1	-29.999999999999996	29.999999999999996								
	38	44	0.028906189460921283	0.058512543801913335	-0.0008392428880598011	450.0	450.0	450.0	0	0	1	-29.999999999999996	29.999999999999996								
	15	45	0.0008045377999338122	0.10348633742557531	-0.002301248211165268	282.0	282.0	282.0	0.955	0.0	1	-29.999999999999996	29.999999999999996								
	14	46	0.00040571690702943315	0.07348993255823337	-0.0008393230723049451	400.0	400.0	400.0	0.9	0.0	1	-29.999999999999996	29.999999999999996								
	46	47	0.022396020643554303	0.06621441082038484	-0.022612364124418364	409.0	409.0	409.0	0	0	1	-29.999999999999996	29.999999999999996								
	47	48	0.018199459328434538	0.023299307053163344	-0.0008396654685865936	993.0	993.0	993.0	0	0	1	-29.999999999999996	29.999999999999996								
	48	49	0.08315043110502593	0.12861379713796114	-0.0008392701376897871	191.0	191.0	191.0	0	0	1	-29.999999999999996	29.999999999999996								
	49	50	0.07981951732117348	0.1275512709096844	-0.0008392489651733087	195.0	195.0	195.0	0	0	1	-29.999999999999996	29.999999999999996								
	50	51	0.14040691382274373	0.22287868024581153	-0.02140017147000172	112.99999999999999	112.99999999999999	112.99999999999999	0	0	1	-29.999999999999996	29.999999999999996								
	10	51	0.0003798456625994874	0.07110830125092155	-0.004322803767815014	412.0	412.0	412.0	0.93	0.0	1	-29.999999999999996	29.999999999999996								
	13	49	0.002730691960411029	0.19064030410173965	-0.0008394538265394302	154.0	154.0	154.0	0.895	0.0	1	-29.999999999999996	29.999999999999996								
	29	52	0.1453255836530165	0.18845863758233966	-0.057280563803962584	125.0	125.0	125.0	0	0	1	-29.999999999999996	29.999999999999996								
	52	53	0.07629175734212071	0.09851843254135198	-0.022030031241356364	236.0	236.0	236.0	0	0	1	-29.999999999999996	29.999999999999996								
	53	54	0.18180777048518842	0.22459816049945852	-0.06414451373726529	99.0	99.0	99.0	0	0	1	-29.999999999999996	29.999999999999996								
	54	55	0.1740734121595469	0.22764320822939094	-0.0008393039557219398	103.0	103.0	103.0	0	0	1	-29.999999999999996	29.999999999999996								
	11	43	0.0017371512786164434	0.1520594431766496	-0.0008402753204149496	192.0	192.0	192.0	0.958	0.0	1	-29.999999999999996	29.999999999999996								
	44	45	0.06275931820277263	0.12491595791825086	-0.0008392909301077037	212.0	212.0	212.0	0	0	1	-29.999999999999996	29.999999999999996								
	40	56	0.10090222266844462	1.1545721807218217	-0.015663353690850042	25.0	25.0	25.0	0.958	0.0	1	-29.999999999999996	29.999999999999996								
	56	41	0.5457644021577478	0.5418392701976056	-0.014781952978002314	38.0	38.0	38.0	0	0	1	-29.999999999999996	29.999999999999996								
	56	42	0.1971553889359537	0.32843853048948524	-0.0008393310652989107	72.0	72.0	72.0	0	0	1	-29.999999999999996	29.999999999999996								
	39	57	0.13178806260926482	1.317954768424768	-0.0008392515886037547	22.0	22.0	22.0	0.98	0.0	1	-29.999999999999996	29.999999999999996								
	57	56	0.17528339102762983	0.2619181721987835	-0.0008393226528776494	94.0	94.0	94.0	0	0	1	-29.999999999999996	29.999999999999996								
	38	49	0.11387739903243194	0.17527102237545555	-0.0008392417122387024	139.0	139.0	139.0	0	0	1	-29.999999999999996	29.999999999999996								
	38	48	0.031273867932320634	0.04831409517494624	-0.0008392924783392291	511.00000000000006	511.00000000000006	511.00000000000006	0	0	1	-29.999999999999996	29.999999999999996								
	9	55	0.001094727634442444	0.1207141266367632	-0.034018893457528676	244.0	244.0	244.0	0.94	0.0	1	-29.999999999999996	29.999999999999996								
];

%%-----  OPF Data  -----%%
%% cost data
%    1    startup    shutdown    n    x1    y1    ...    xn    yn
%    2    startup    shutdown    n    c(n-1)    ...    c0
mpc.gencost = [
	2	0.0	0.0	2	16.960624	0.0
	2	0.0	0.0	2	0.0	0.0
	2	0.0	0.0	2	34.075557	0.0
	2	0.0	0.0	2	0.0	0.0
	2	0.0	0.0	2	30.441037	0.0
	2	0.0	0.0	2	0.0	0.0
	2	0.0	0.0	2	37.188979	0.0
];

